powerflow/Codes/PF_Formulation/resultados_csv/16/3busfrank/ramos.csv
caso,script,branch_id,f_bus,t_bus,pf_pu,qf_pu,pt_pu,qt_pu,loss_p_pu,loss_q_pu
3busfrank.pwf,16,1,1,2,0.07255806501802466,-0.07941418127426221,-0.07058005077171316,0.08131569773204157,0.001978014246311499,0.001901516457779362
3busfrank.pwf,16,2,1,3,0.26861940974359055,0.08890249628161198,-0.25493381630168055,-0.07574617993414115,0.013685593441910004,0.013156316347470831
3busfrank.pwf,16,3,2,3,0.20048005077171374,0.1634262668649001,-0.1890661836983192,-0.15245382006506233,0.011413867073394535,0.010972446799837776
